__3upr_C_rec_3upr_1kx_lig_min.pdb
 OpenBabel10171920013D

 21 24  0  0  1  0  0  0  0  0999 V2000
  -11.9610  -17.0580  -36.9810 C   0  0  0  0  0  0  0  0  0  0  0  0
  -11.2810  -16.0560  -36.2520 N   0  0  0  0  0  0  0  0  0  0  0  0
  -12.1920  -16.8830  -38.3340 C   0  0  0  0  0  0  0  0  0  0  0  0
  -12.8640  -18.0140  -38.7810 N   0  0  0  0  0  0  0  0  0  0  0  0
  -13.0460  -18.8650  -37.7130 C   0  0  0  0  0  0  0  0  0  0  0  0
  -12.5080  -18.3010  -36.6170 N   0  0  0  0  0  0  0  0  0  0  0  0
  -11.0670  -14.7130  -38.1820 N   0  0  0  0  0  0  0  0  0  0  0  0
  -10.1520  -13.8770  -36.0840 N   0  0  0  0  0  0  0  0  0  0  0  0
  -11.7260  -15.6720  -38.9570 C   0  0  0  0  0  0  0  0  0  0  0  0
  -10.8500  -14.9060  -36.8670 C   0  0  0  0  0  0  0  0  0  0  0  0
  -12.4760  -18.8700  -35.2560 C   0  0  1  0  0  0  0  0  0  0  0  0
  -13.6270  -19.8210  -35.0450 C   0  0  0  0  0  0  0  0  0  0  0  0
  -13.0800  -21.1060  -34.5170 C   0  0  0  0  0  0  0  0  0  0  0  0
  -11.6050  -21.0900  -34.7050 C   0  0  2  0  0  0  0  0  0  0  0  0
  -11.2180  -19.6280  -34.9480 C   0  0  0  0  0  0  0  0  0  0  0  0
  -10.8000  -21.4940  -36.9970 O   0  0  0  0  0  0  0  0  0  0  0  0
  -11.2480  -22.0300  -35.8060 C   0  0  0  0  0  0  0  0  0  0  0  0
  -11.9140  -15.4000  -40.3920 N   0  0  0  0  0  0  0  0  0  0  0  0
  -10.8810  -13.7710  -41.9060 C   0  0  0  0  0  0  0  0  0  0  0  0
  -11.8870  -14.0360  -40.8330 C   0  0  0  0  0  0  0  0  0  0  0  0
  -12.3270  -13.8930  -42.2520 C   0  0  0  0  0  0  0  0  0  0  0  0
  1  3  2  0  0  0  0
  1  6  1  0  0  0  0
  1  2  1  0  0  0  0
  2 10  2  0  0  0  0
  3  9  1  0  0  0  0
  3  4  1  0  0  0  0
  4  5  2  0  0  0  0
  5  6  1  0  0  0  0
  7  9  2  0  0  0  0
  7 10  1  0  0  0  0
  8 10  1  0  0  0  0
  9 18  1  0  0  0  0
 11  6  1  6  0  0  0
 11 12  1  0  0  0  0
 11 15  1  0  0  0  0
 12 13  1  0  0  0  0
 13 14  1  0  0  0  0
 14 17  1  6  0  0  0
 14 15  1  0  0  0  0
 16 17  1  0  0  0  0
 18 20  1  0  0  0  0
 19 21  1  0  0  0  0
 19 20  1  0  0  0  0
 20 21  1  0  0  0  0
M  END
>  <COMPND>
    UNNAMED

>  <AUTHOR>
    GENERATED BY OPEN BABEL 2.4.90

>  <MASTER>
        0    0    0    0    0    0    0    0   21    0   21    0

