__3upr_C_rec_5u98_1kx_lig_docked.pdb
 OpenBabel10171920023D

 21 24  0  0  1  0  0  0  0  0999 V2000
  -11.7330  -17.1250  -37.0080 C   0  0  0  0  0  0  0  0  0  0  0  0
  -11.0950  -16.1220  -36.3090 N   0  0  0  0  0  0  0  0  0  0  0  0
  -12.0590  -16.9730  -38.3580 C   0  0  0  0  0  0  0  0  0  0  0  0
  -12.6670  -18.1490  -38.7710 N   0  0  0  0  0  0  0  0  0  0  0  0
  -12.7210  -18.9930  -37.6940 C   0  0  0  0  0  0  0  0  0  0  0  0
  -12.1550  -18.3790  -36.6250 N   0  0  0  0  0  0  0  0  0  0  0  0
  -11.0990  -14.7790  -38.1970 N   0  0  0  0  0  0  0  0  0  0  0  0
  -10.1580  -13.9470  -36.2010 N   0  0  0  0  0  0  0  0  0  0  0  0
  -11.7000  -15.7070  -38.9560 C   0  0  0  0  0  0  0  0  0  0  0  0
  -10.7980  -14.9870  -36.9210 C   0  0  0  0  0  0  0  0  0  0  0  0
  -12.0060  -18.9140  -35.3120 C   0  0  1  0  0  0  0  0  0  0  0  0
  -13.3430  -19.6940  -34.9260 C   0  0  0  0  0  0  0  0  0  0  0  0
  -13.1090  -21.0300  -34.9130 C   0  0  0  0  0  0  0  0  0  0  0  0
  -11.6290  -21.2630  -34.9700 C   0  0  2  0  0  0  0  0  0  0  0  0
  -10.9880  -19.8280  -35.2570 C   0  0  0  0  0  0  0  0  0  0  0  0
  -11.2380  -23.5210  -35.6180 O   0  0  0  0  0  0  0  0  0  0  0  0
  -11.2400  -22.1690  -36.0710 C   0  0  0  0  0  0  0  0  0  0  0  0
  -11.9650  -15.4100  -40.3310 N   0  0  0  0  0  0  0  0  0  0  0  0
  -12.3220  -13.9400  -42.2950 C   0  0  0  0  0  0  0  0  0  0  0  0
  -11.8990  -14.0600  -40.8390 C   0  0  0  0  0  0  0  0  0  0  0  0
  -10.8700  -13.7350  -41.9150 C   0  0  0  0  0  0  0  0  0  0  0  0
  1  3  2  0  0  0  0
  1  6  1  0  0  0  0
  1  2  1  0  0  0  0
  2 10  2  0  0  0  0
  3  9  1  0  0  0  0
  3  4  1  0  0  0  0
  4  5  2  0  0  0  0
  5  6  1  0  0  0  0
  7  9  2  0  0  0  0
  7 10  1  0  0  0  0
  8 10  1  0  0  0  0
  9 18  1  0  0  0  0
 11  6  1  6  0  0  0
 11 15  1  0  0  0  0
 11 12  1  0  0  0  0
 12 13  1  0  0  0  0
 13 14  1  0  0  0  0
 14 17  1  6  0  0  0
 14 15  1  0  0  0  0
 16 17  1  0  0  0  0
 18 20  1  0  0  0  0
 19 21  1  0  0  0  0
 19 20  1  0  0  0  0
 20 21  1  0  0  0  0
M  END
>  <MODEL>
       4

>  <COMPND>
    UNNAMED

>  <AUTHOR>
    GENERATED BY OPEN BABEL 2.4.90

>  <MASTER>
        0    0    0    0    0    0    0    0   21    0   21    0

