__3upr_C_rec_5u98_1kx_lig_min.pdb
 OpenBabel10171920013D

 21 24  0  0  1  0  0  0  0  0999 V2000
  -11.9620  -17.0480  -37.2110 C   0  0  0  0  0  0  0  0  0  0  0  0
  -11.2890  -16.1180  -36.4480 N   0  0  0  0  0  0  0  0  0  0  0  0
  -12.2060  -16.8310  -38.5700 C   0  0  0  0  0  0  0  0  0  0  0  0
  -12.8780  -17.9450  -39.0520 N   0  0  0  0  0  0  0  0  0  0  0  0
  -13.0490  -18.8150  -38.0080 C   0  0  0  0  0  0  0  0  0  0  0  0
  -12.4950  -18.2770  -36.8930 N   0  0  0  0  0  0  0  0  0  0  0  0
  -11.0960  -14.7220  -38.2870 N   0  0  0  0  0  0  0  0  0  0  0  0
  -10.2010  -14.0230  -36.2200 N   0  0  0  0  0  0  0  0  0  0  0  0
  -11.7230  -15.5780  -39.1050 C   0  0  0  0  0  0  0  0  0  0  0  0
  -10.8780  -14.9900  -37.0060 C   0  0  0  0  0  0  0  0  0  0  0  0
  -12.4540  -18.8620  -35.5930 C   0  0  1  0  0  0  0  0  0  0  0  0
  -13.6410  -19.9220  -35.4740 C   0  0  0  0  0  0  0  0  0  0  0  0
  -13.1340  -21.1800  -35.4660 C   0  0  0  0  0  0  0  0  0  0  0  0
  -11.6490  -21.1030  -35.2690 C   0  0  2  0  0  0  0  0  0  0  0  0
  -11.2890  -19.5520  -35.3910 C   0  0  0  0  0  0  0  0  0  0  0  0
  -11.6740  -21.9050  -37.5120 O   0  0  0  0  0  0  0  0  0  0  0  0
  -10.9020  -21.8320  -36.3150 C   0  0  0  0  0  0  0  0  0  0  0  0
  -11.8950  -15.2200  -40.4810 N   0  0  0  0  0  0  0  0  0  0  0  0
  -12.1980  -13.6310  -42.3590 C   0  0  0  0  0  0  0  0  0  0  0  0
  -11.7070  -13.8640  -40.9380 C   0  0  0  0  0  0  0  0  0  0  0  0
  -10.7130  -13.6030  -42.0630 C   0  0  0  0  0  0  0  0  0  0  0  0
  1  3  2  0  0  0  0
  1  6  1  0  0  0  0
  1  2  1  0  0  0  0
  2 10  2  0  0  0  0
  3  9  1  0  0  0  0
  3  4  1  0  0  0  0
  4  5  2  0  0  0  0
  5  6  1  0  0  0  0
  7  9  2  0  0  0  0
  7 10  1  0  0  0  0
  8 10  1  0  0  0  0
  9 18  1  0  0  0  0
 11  6  1  6  0  0  0
 11 15  1  0  0  0  0
 11 12  1  0  0  0  0
 12 13  1  0  0  0  0
 13 14  1  0  0  0  0
 14 17  1  6  0  0  0
 14 15  1  0  0  0  0
 16 17  1  0  0  0  0
 18 20  1  0  0  0  0
 19 21  1  0  0  0  0
 19 20  1  0  0  0  0
 20 21  1  0  0  0  0
M  END
>  <COMPND>
    UNNAMED

>  <AUTHOR>
    GENERATED BY OPEN BABEL 2.4.90

>  <MASTER>
        0    0    0    0    0    0    0    0   21    0   21    0

