__3upr_C_rec_3vri_1kx_lig_docked.pdb
 OpenBabel10171920023D

 21 24  0  0  1  0  0  0  0  0999 V2000
  -11.7930  -16.9610  -36.9220 C   0  0  0  0  0  0  0  0  0  0  0  0
  -11.1260  -16.0330  -36.2850 N   0  0  0  0  0  0  0  0  0  0  0  0
  -12.0630  -16.7590  -38.2140 C   0  0  0  0  0  0  0  0  0  0  0  0
  -12.7270  -17.8120  -38.7030 N   0  0  0  0  0  0  0  0  0  0  0  0
  -12.8230  -18.6410  -37.6840 C   0  0  0  0  0  0  0  0  0  0  0  0
  -12.2520  -18.1430  -36.5910 N   0  0  0  0  0  0  0  0  0  0  0  0
  -11.0660  -14.6900  -38.1550 N   0  0  0  0  0  0  0  0  0  0  0  0
  -10.1320  -13.9750  -36.2350 N   0  0  0  0  0  0  0  0  0  0  0  0
  -11.7010  -15.6220  -38.8140 C   0  0  0  0  0  0  0  0  0  0  0  0
  -10.7900  -14.8890  -36.8920 C   0  0  0  0  0  0  0  0  0  0  0  0
  -12.1620  -18.7880  -35.2550 C   0  0  1  0  0  0  0  0  0  0  0  0
  -13.2990  -19.5260  -34.8580 C   0  0  0  0  0  0  0  0  0  0  0  0
  -12.9820  -20.7900  -34.5980 C   0  0  0  0  0  0  0  0  0  0  0  0
  -11.6460  -21.0550  -34.7490 C   0  0  2  0  0  0  0  0  0  0  0  0
  -11.0330  -19.7380  -35.1580 C   0  0  0  0  0  0  0  0  0  0  0  0
  -10.6980  -21.4610  -36.9100 O   0  0  0  0  0  0  0  0  0  0  0  0
  -11.2520  -22.0850  -35.7880 C   0  0  0  0  0  0  0  0  0  0  0  0
  -12.0300  -15.5050  -40.0830 N   0  0  0  0  0  0  0  0  0  0  0  0
  -12.2610  -13.6950  -41.9100 C   0  0  0  0  0  0  0  0  0  0  0  0
  -11.7440  -14.4800  -40.8740 C   0  0  0  0  0  0  0  0  0  0  0  0
  -10.8480  -13.8980  -41.7970 C   0  0  0  0  0  0  0  0  0  0  0  0
  1  3  2  0  0  0  0
  1  6  1  0  0  0  0
  1  2  1  0  0  0  0
  2 10  2  0  0  0  0
  3  4  1  0  0  0  0
  3  9  1  0  0  0  0
  4  5  2  0  0  0  0
  5  6  1  0  0  0  0
  7  9  2  0  0  0  0
  7 10  1  0  0  0  0
  8 10  1  0  0  0  0
  9 18  1  0  0  0  0
 11  6  1  6  0  0  0
 11 15  1  0  0  0  0
 11 12  1  0  0  0  0
 12 13  2  0  0  0  0
 13 14  1  0  0  0  0
 14 17  1  6  0  0  0
 14 15  1  0  0  0  0
 16 17  1  0  0  0  0
 18 20  1  0  0  0  0
 19 21  1  0  0  0  0
 19 20  1  0  0  0  0
 20 21  1  0  0  0  0
M  END
>  <MODEL>
       5

>  <COMPND>
    UNNAMED

>  <AUTHOR>
    GENERATED BY OPEN BABEL 2.4.90

>  <MASTER>
        0    0    0    0    0    0    0    0   21    0   21    0

