__3upr_C_rec_3vri_1kx_lig_min.pdb
 OpenBabel10171920013D

 21 24  0  0  1  0  0  0  0  0999 V2000
  -11.8000  -16.9180  -37.1630 C   0  0  0  0  0  0  0  0  0  0  0  0
  -11.1780  -15.9830  -36.4880 N   0  0  0  0  0  0  0  0  0  0  0  0
  -12.0640  -16.6850  -38.4500 C   0  0  0  0  0  0  0  0  0  0  0  0
  -12.6780  -17.7490  -38.9790 N   0  0  0  0  0  0  0  0  0  0  0  0
  -12.7510  -18.6130  -37.9890 C   0  0  0  0  0  0  0  0  0  0  0  0
  -12.2130  -18.1270  -36.8740 N   0  0  0  0  0  0  0  0  0  0  0  0
  -11.1550  -14.5800  -38.3150 N   0  0  0  0  0  0  0  0  0  0  0  0
  -10.2710  -13.8880  -36.3630 N   0  0  0  0  0  0  0  0  0  0  0  0
  -11.7430  -15.5160  -39.0100 C   0  0  0  0  0  0  0  0  0  0  0  0
  -10.8840  -14.8080  -37.0560 C   0  0  0  0  0  0  0  0  0  0  0  0
  -12.1110  -18.8100  -35.5580 C   0  0  1  0  0  0  0  0  0  0  0  0
  -13.2160  -19.6130  -35.2010 C   0  0  0  0  0  0  0  0  0  0  0  0
  -12.8430  -20.8680  -34.9760 C   0  0  0  0  0  0  0  0  0  0  0  0
  -11.4940  -21.0650  -35.1160 C   0  0  2  0  0  0  0  0  0  0  0  0
  -10.9390  -19.7080  -35.4730 C   0  0  0  0  0  0  0  0  0  0  0  0
  -11.5940  -21.7100  -37.4190 O   0  0  0  0  0  0  0  0  0  0  0  0
  -11.0360  -22.0410  -36.1810 C   0  0  0  0  0  0  0  0  0  0  0  0
  -12.0630  -15.3730  -40.2790 N   0  0  0  0  0  0  0  0  0  0  0  0
  -12.0850  -13.6460  -42.1990 C   0  0  0  0  0  0  0  0  0  0  0  0
  -11.6940  -14.3760  -41.0700 C   0  0  0  0  0  0  0  0  0  0  0  0
  -10.6950  -13.8120  -41.8940 C   0  0  0  0  0  0  0  0  0  0  0  0
  1  3  2  0  0  0  0
  1  6  1  0  0  0  0
  1  2  1  0  0  0  0
  2 10  2  0  0  0  0
  3  4  1  0  0  0  0
  3  9  1  0  0  0  0
  4  5  2  0  0  0  0
  5  6  1  0  0  0  0
  7  9  2  0  0  0  0
  7 10  1  0  0  0  0
  8 10  1  0  0  0  0
  9 18  1  0  0  0  0
 11  6  1  6  0  0  0
 11 15  1  0  0  0  0
 11 12  1  0  0  0  0
 12 13  2  0  0  0  0
 13 14  1  0  0  0  0
 14 17  1  6  0  0  0
 14 15  1  0  0  0  0
 16 17  1  0  0  0  0
 18 20  1  0  0  0  0
 19 21  1  0  0  0  0
 19 20  1  0  0  0  0
 20 21  1  0  0  0  0
M  END
>  <COMPND>
    UNNAMED

>  <AUTHOR>
    GENERATED BY OPEN BABEL 2.4.90

>  <MASTER>
        0    0    0    0    0    0    0    0   21    0   21    0

