__3upr_C_rec_3upr_1kx_lig_docked.pdb
 OpenBabel10171920023D

 21 24  0  0  1  0  0  0  0  0999 V2000
  -11.9680  -17.0760  -37.0360 C   0  0  0  0  0  0  0  0  0  0  0  0
  -11.2470  -16.0990  -36.3130 N   0  0  0  0  0  0  0  0  0  0  0  0
  -12.2480  -16.8710  -38.3750 C   0  0  0  0  0  0  0  0  0  0  0  0
  -12.9520  -17.9830  -38.8190 N   0  0  0  0  0  0  0  0  0  0  0  0
  -13.1050  -18.8540  -37.7620 C   0  0  0  0  0  0  0  0  0  0  0  0
  -12.5180  -18.3200  -36.6760 N   0  0  0  0  0  0  0  0  0  0  0  0
  -11.0880  -14.7190  -38.2230 N   0  0  0  0  0  0  0  0  0  0  0  0
  -10.0820  -13.9390  -36.1450 N   0  0  0  0  0  0  0  0  0  0  0  0
  -11.7900  -15.6530  -38.9910 C   0  0  0  0  0  0  0  0  0  0  0  0
  -10.8230  -14.9420  -36.9210 C   0  0  0  0  0  0  0  0  0  0  0  0
  -12.4420  -18.9170  -35.3290 C   0  0  1  0  0  0  0  0  0  0  0  0
  -13.5820  -19.8780  -35.1030 C   0  0  0  0  0  0  0  0  0  0  0  0
  -13.0140  -21.1710  -34.6200 C   0  0  0  0  0  0  0  0  0  0  0  0
  -11.5460  -21.1440  -34.8520 C   0  0  2  0  0  0  0  0  0  0  0  0
  -11.1720  -19.6750  -35.0760 C   0  0  0  0  0  0  0  0  0  0  0  0
  -11.1350  -21.5190  -37.2510 O   0  0  0  0  0  0  0  0  0  0  0  0
  -11.2180  -22.0590  -35.9830 C   0  0  0  0  0  0  0  0  0  0  0  0
  -12.0280  -15.3500  -40.4120 N   0  0  0  0  0  0  0  0  0  0  0  0
  -10.8620  -13.7980  -41.9110 C   0  0  0  0  0  0  0  0  0  0  0  0
  -11.8940  -13.9890  -40.8470 C   0  0  0  0  0  0  0  0  0  0  0  0
  -12.3100  -13.8080  -42.2680 C   0  0  0  0  0  0  0  0  0  0  0  0
  1  3  2  0  0  0  0
  1  6  1  0  0  0  0
  1  2  1  0  0  0  0
  2 10  2  0  0  0  0
  3  9  1  0  0  0  0
  3  4  1  0  0  0  0
  4  5  2  0  0  0  0
  5  6  1  0  0  0  0
  7  9  2  0  0  0  0
  7 10  1  0  0  0  0
  8 10  1  0  0  0  0
  9 18  1  0  0  0  0
 11  6  1  6  0  0  0
 11 12  1  0  0  0  0
 11 15  1  0  0  0  0
 12 13  1  0  0  0  0
 13 14  1  0  0  0  0
 14 17  1  6  0  0  0
 14 15  1  0  0  0  0
 16 17  1  0  0  0  0
 18 20  1  0  0  0  0
 19 21  1  0  0  0  0
 19 20  1  0  0  0  0
 20 21  1  0  0  0  0
M  END
>  <MODEL>
       4

>  <COMPND>
    UNNAMED

>  <AUTHOR>
    GENERATED BY OPEN BABEL 2.4.90

>  <MASTER>
        0    0    0    0    0    0    0    0   21    0   21    0

