__3vri_A_rec_3vri_1kx_lig_docked.pdb
 OpenBabel10171920013D

 21 24  0  0  1  0  0  0  0  0999 V2000
  -11.8520  -17.0280  -36.9870 C   0  0  0  0  0  0  0  0  0  0  0  0
  -11.3000  -16.0400  -36.3280 N   0  0  0  0  0  0  0  0  0  0  0  0
  -11.9710  -16.9050  -38.3110 C   0  0  0  0  0  0  0  0  0  0  0  0
  -12.5330  -18.0090  -38.8140 N   0  0  0  0  0  0  0  0  0  0  0  0
  -12.7230  -18.7870  -37.7680 C   0  0  0  0  0  0  0  0  0  0  0  0
  -12.3070  -18.2090  -36.6450 N   0  0  0  0  0  0  0  0  0  0  0  0
  -11.0620  -14.7960  -38.2520 N   0  0  0  0  0  0  0  0  0  0  0  0
  -10.3930  -13.9430  -36.2790 N   0  0  0  0  0  0  0  0  0  0  0  0
  -11.5790  -15.7870  -38.9280 C   0  0  0  0  0  0  0  0  0  0  0  0
  -10.9340  -14.9170  -36.9560 C   0  0  0  0  0  0  0  0  0  0  0  0
  -12.3570  -18.7790  -35.2740 C   0  0  1  0  0  0  0  0  0  0  0  0
  -13.5110  -19.5340  -34.9690 C   0  0  0  0  0  0  0  0  0  0  0  0
  -13.1910  -20.7700  -34.6030 C   0  0  0  0  0  0  0  0  0  0  0  0
  -11.8400  -20.9950  -34.5830 C   0  0  2  0  0  0  0  0  0  0  0  0
  -11.2200  -19.6820  -34.9920 C   0  0  0  0  0  0  0  0  0  0  0  0
  -10.6260  -21.4830  -36.5880 O   0  0  0  0  0  0  0  0  0  0  0  0
  -11.2960  -22.0650  -35.5090 C   0  0  0  0  0  0  0  0  0  0  0  0
  -11.7560  -15.7510  -40.2310 N   0  0  0  0  0  0  0  0  0  0  0  0
  -11.8300  -14.1610  -42.2640 C   0  0  0  0  0  0  0  0  0  0  0  0
  -11.4960  -14.7240  -41.0270 C   0  0  0  0  0  0  0  0  0  0  0  0
  -10.5250  -13.9570  -41.7090 C   0  0  0  0  0  0  0  0  0  0  0  0
  1  3  2  0  0  0  0
  1  6  1  0  0  0  0
  1  2  1  0  0  0  0
  2 10  2  0  0  0  0
  3  4  1  0  0  0  0
  3  9  1  0  0  0  0
  4  5  2  0  0  0  0
  5  6  1  0  0  0  0
  7  9  2  0  0  0  0
  7 10  1  0  0  0  0
  8 10  1  0  0  0  0
  9 18  1  0  0  0  0
 11  6  1  6  0  0  0
 11 15  1  0  0  0  0
 11 12  1  0  0  0  0
 12 13  2  0  0  0  0
 13 14  1  0  0  0  0
 14 17  1  6  0  0  0
 14 15  1  0  0  0  0
 16 17  1  0  0  0  0
 18 20  1  0  0  0  0
 19 21  1  0  0  0  0
 19 20  1  0  0  0  0
 20 21  1  0  0  0  0
M  END
>  <MODEL>
       1

>  <COMPND>
    UNNAMED

>  <AUTHOR>
    GENERATED BY OPEN BABEL 2.4.90

>  <MASTER>
        0    0    0    0    0    0    0    0   21    0   21    0

