__3vri_A_rec_3vrj_1kx_lig_min.pdb
 OpenBabel10171920013D

 21 24  0  0  1  0  0  0  0  0999 V2000
  -11.9050  -17.0300  -37.1700 C   0  0  0  0  0  0  0  0  0  0  0  0
  -11.3110  -16.1220  -36.4290 N   0  0  0  0  0  0  0  0  0  0  0  0
  -12.1100  -16.7770  -38.4680 C   0  0  0  0  0  0  0  0  0  0  0  0
  -12.7240  -17.8140  -38.9590 N   0  0  0  0  0  0  0  0  0  0  0  0
  -12.9080  -18.6560  -37.9800 C   0  0  0  0  0  0  0  0  0  0  0  0
  -12.4200  -18.1980  -36.8670 N   0  0  0  0  0  0  0  0  0  0  0  0
  -11.0830  -14.7510  -38.2380 N   0  0  0  0  0  0  0  0  0  0  0  0
  -10.2690  -14.1460  -36.2030 N   0  0  0  0  0  0  0  0  0  0  0  0
  -11.6370  -15.6470  -39.0080 C   0  0  0  0  0  0  0  0  0  0  0  0
  -10.8710  -14.9890  -36.9660 C   0  0  0  0  0  0  0  0  0  0  0  0
  -12.4320  -18.8090  -35.4920 C   0  0  1  0  0  0  0  0  0  0  0  0
  -13.4710  -19.7370  -35.3380 C   0  0  0  0  0  0  0  0  0  0  0  0
  -12.9990  -20.9300  -35.1640 C   0  0  0  0  0  0  0  0  0  0  0  0
  -11.6300  -20.9360  -35.0660 C   0  0  2  0  0  0  0  0  0  0  0  0
  -11.2180  -19.4950  -35.1370 C   0  0  0  0  0  0  0  0  0  0  0  0
  -11.7550  -21.8050  -37.3470 O   0  0  0  0  0  0  0  0  0  0  0  0
  -10.9680  -21.7080  -36.1930 C   0  0  0  0  0  0  0  0  0  0  0  0
  -11.9250  -15.4300  -40.2610 N   0  0  0  0  0  0  0  0  0  0  0  0
  -11.7770  -13.6030  -42.0480 C   0  0  0  0  0  0  0  0  0  0  0  0
  -11.4510  -14.4760  -41.0320 C   0  0  0  0  0  0  0  0  0  0  0  0
  -10.4160  -13.9530  -41.7640 C   0  0  0  0  0  0  0  0  0  0  0  0
  1  3  2  0  0  0  0
  1  6  1  0  0  0  0
  1  2  1  0  0  0  0
  2 10  2  0  0  0  0
  3  9  1  0  0  0  0
  3  4  1  0  0  0  0
  4  5  2  0  0  0  0
  5  6  1  0  0  0  0
  7  9  2  0  0  0  0
  7 10  1  0  0  0  0
  8 10  1  0  0  0  0
  9 18  1  0  0  0  0
 11  6  1  6  0  0  0
 11 12  1  0  0  0  0
 11 15  1  0  0  0  0
 12 13  1  0  0  0  0
 13 14  1  0  0  0  0
 14 17  1  6  0  0  0
 14 15  1  0  0  0  0
 16 17  1  0  0  0  0
 18 20  1  0  0  0  0
 19 21  1  0  0  0  0
 19 20  1  0  0  0  0
 20 21  1  0  0  0  0
M  END
>  <COMPND>
    UNNAMED

>  <AUTHOR>
    GENERATED BY OPEN BABEL 2.4.90

>  <MASTER>
        0    0    0    0    0    0    0    0   21    0   21    0

