__3vri_A_rec_3upr_1kx_lig_docked.pdb
 OpenBabel10171920013D

 21 24  0  0  1  0  0  0  0  0999 V2000
  -12.0380  -17.0330  -37.0790 C   0  0  0  0  0  0  0  0  0  0  0  0
  -11.4050  -16.0290  -36.3110 N   0  0  0  0  0  0  0  0  0  0  0  0
  -12.1440  -16.8820  -38.4500 C   0  0  0  0  0  0  0  0  0  0  0  0
  -12.7960  -18.0090  -38.9340 N   0  0  0  0  0  0  0  0  0  0  0  0
  -13.0900  -18.8340  -37.8700 C   0  0  0  0  0  0  0  0  0  0  0  0
  -12.6400  -18.2580  -36.7420 N   0  0  0  0  0  0  0  0  0  0  0  0
  -10.9940  -14.7300  -38.2400 N   0  0  0  0  0  0  0  0  0  0  0  0
  -10.2510  -13.8680  -36.0840 N   0  0  0  0  0  0  0  0  0  0  0  0
  -11.6010  -15.6920  -39.0520 C   0  0  0  0  0  0  0  0  0  0  0  0
  -10.8980  -14.9000  -36.9060 C   0  0  0  0  0  0  0  0  0  0  0  0
  -12.7400  -18.7990  -35.3720 C   0  0  1  0  0  0  0  0  0  0  0  0
  -13.8360  -19.8310  -35.2830 C   0  0  0  0  0  0  0  0  0  0  0  0
  -13.2680  -21.0610  -34.6570 C   0  0  0  0  0  0  0  0  0  0  0  0
  -11.7870  -20.9380  -34.6580 C   0  0  2  0  0  0  0  0  0  0  0  0
  -11.4790  -19.4550  -34.8890 C   0  0  0  0  0  0  0  0  0  0  0  0
  -10.4990  -21.3230  -36.7210 O   0  0  0  0  0  0  0  0  0  0  0  0
  -11.2250  -21.8660  -35.6800 C   0  0  0  0  0  0  0  0  0  0  0  0
  -11.6560  -15.4470  -40.5030 N   0  0  0  0  0  0  0  0  0  0  0  0
  -10.4560  -13.8220  -41.8940 C   0  0  0  0  0  0  0  0  0  0  0  0
  -11.5950  -14.0900  -40.9640 C   0  0  0  0  0  0  0  0  0  0  0  0
  -11.8380  -13.9820  -42.4320 C   0  0  0  0  0  0  0  0  0  0  0  0
  1  3  2  0  0  0  0
  1  6  1  0  0  0  0
  1  2  1  0  0  0  0
  2 10  2  0  0  0  0
  3  9  1  0  0  0  0
  3  4  1  0  0  0  0
  4  5  2  0  0  0  0
  5  6  1  0  0  0  0
  7  9  2  0  0  0  0
  7 10  1  0  0  0  0
  8 10  1  0  0  0  0
  9 18  1  0  0  0  0
 11  6  1  6  0  0  0
 11 12  1  0  0  0  0
 11 15  1  0  0  0  0
 12 13  1  0  0  0  0
 13 14  1  0  0  0  0
 14 17  1  6  0  0  0
 14 15  1  0  0  0  0
 16 17  1  0  0  0  0
 18 20  1  0  0  0  0
 19 21  1  0  0  0  0
 19 20  1  0  0  0  0
 20 21  1  0  0  0  0
M  END
>  <MODEL>
       1

>  <COMPND>
    UNNAMED

>  <AUTHOR>
    GENERATED BY OPEN BABEL 2.4.90

>  <MASTER>
        0    0    0    0    0    0    0    0   21    0   21    0

