__3vri_A_rec_3vri_1kx_lig_min.pdb
 OpenBabel10171920013D

 21 24  0  0  1  0  0  0  0  0999 V2000
  -11.8350  -17.0310  -36.9610 C   0  0  0  0  0  0  0  0  0  0  0  0
  -11.2840  -16.0380  -36.3100 N   0  0  0  0  0  0  0  0  0  0  0  0
  -11.9560  -16.9160  -38.2860 C   0  0  0  0  0  0  0  0  0  0  0  0
  -12.5170  -18.0240  -38.7810 N   0  0  0  0  0  0  0  0  0  0  0  0
  -12.7030  -18.7970  -37.7300 C   0  0  0  0  0  0  0  0  0  0  0  0
  -12.2870  -18.2100  -36.6120 N   0  0  0  0  0  0  0  0  0  0  0  0
  -11.0510  -14.8050  -38.2420 N   0  0  0  0  0  0  0  0  0  0  0  0
  -10.3800  -13.9380  -36.2750 N   0  0  0  0  0  0  0  0  0  0  0  0
  -11.5670  -15.8010  -38.9100 C   0  0  0  0  0  0  0  0  0  0  0  0
  -10.9210  -14.9180  -36.9450 C   0  0  0  0  0  0  0  0  0  0  0  0
  -12.3330  -18.7720  -35.2360 C   0  0  1  0  0  0  0  0  0  0  0  0
  -13.4910  -19.5170  -34.9210 C   0  0  0  0  0  0  0  0  0  0  0  0
  -13.1780  -20.7530  -34.5500 C   0  0  0  0  0  0  0  0  0  0  0  0
  -11.8280  -20.9880  -34.5360 C   0  0  2  0  0  0  0  0  0  0  0  0
  -11.2010  -19.6820  -34.9560 C   0  0  0  0  0  0  0  0  0  0  0  0
  -10.6640  -21.4950  -36.5660 O   0  0  0  0  0  0  0  0  0  0  0  0
  -11.2970  -22.0670  -35.4580 C   0  0  0  0  0  0  0  0  0  0  0  0
  -11.7460  -15.7740  -40.2130 N   0  0  0  0  0  0  0  0  0  0  0  0
  -11.8350  -14.1940  -42.2540 C   0  0  0  0  0  0  0  0  0  0  0  0
  -11.4940  -14.7490  -41.0160 C   0  0  0  0  0  0  0  0  0  0  0  0
  -10.5300  -13.9800  -41.7040 C   0  0  0  0  0  0  0  0  0  0  0  0
  1  3  2  0  0  0  0
  1  6  1  0  0  0  0
  1  2  1  0  0  0  0
  2 10  2  0  0  0  0
  3  4  1  0  0  0  0
  3  9  1  0  0  0  0
  4  5  2  0  0  0  0
  5  6  1  0  0  0  0
  7  9  2  0  0  0  0
  7 10  1  0  0  0  0
  8 10  1  0  0  0  0
  9 18  1  0  0  0  0
 11  6  1  6  0  0  0
 11 15  1  0  0  0  0
 11 12  1  0  0  0  0
 12 13  2  0  0  0  0
 13 14  1  0  0  0  0
 14 17  1  6  0  0  0
 14 15  1  0  0  0  0
 16 17  1  0  0  0  0
 18 20  1  0  0  0  0
 19 21  1  0  0  0  0
 19 20  1  0  0  0  0
 20 21  1  0  0  0  0
M  END
>  <COMPND>
    UNNAMED

>  <AUTHOR>
    GENERATED BY OPEN BABEL 2.4.90

>  <MASTER>
        0    0    0    0    0    0    0    0   21    0   21    0

