__3vrj_A_rec_3upr_1kx_lig_docked.pdb
 OpenBabel10171920013D

 21 24  0  0  1  0  0  0  0  0999 V2000
  -12.1270  -16.9240  -37.2320 C   0  0  0  0  0  0  0  0  0  0  0  0
  -11.4390  -15.9980  -36.4170 N   0  0  0  0  0  0  0  0  0  0  0  0
  -12.1870  -16.7220  -38.5990 C   0  0  0  0  0  0  0  0  0  0  0  0
  -12.9120  -17.7790  -39.1360 N   0  0  0  0  0  0  0  0  0  0  0  0
  -13.2950  -18.6120  -38.1080 C   0  0  0  0  0  0  0  0  0  0  0  0
  -12.8310  -18.1100  -36.9500 N   0  0  0  0  0  0  0  0  0  0  0  0
  -10.8800  -14.6740  -38.2900 N   0  0  0  0  0  0  0  0  0  0  0  0
  -10.1290  -13.9410  -36.0900 N   0  0  0  0  0  0  0  0  0  0  0  0
  -11.5390  -15.5590  -39.1480 C   0  0  0  0  0  0  0  0  0  0  0  0
  -10.8320  -14.8930  -36.9620 C   0  0  0  0  0  0  0  0  0  0  0  0
  -13.0060  -18.6850  -35.6030 C   0  0  1  0  0  0  0  0  0  0  0  0
  -13.9600  -19.8530  -35.6390 C   0  0  0  0  0  0  0  0  0  0  0  0
  -13.3060  -21.0100  -34.9600 C   0  0  0  0  0  0  0  0  0  0  0  0
  -11.8630  -20.6930  -34.7970 C   0  0  2  0  0  0  0  0  0  0  0  0
  -11.7300  -19.1790  -34.9870 C   0  0  0  0  0  0  0  0  0  0  0  0
  -10.4280  -20.8760  -36.7910 O   0  0  0  0  0  0  0  0  0  0  0  0
  -11.0750  -21.5210  -35.7550 C   0  0  0  0  0  0  0  0  0  0  0  0
  -11.5380  -15.2640  -40.5910 N   0  0  0  0  0  0  0  0  0  0  0  0
  -10.2890  -13.6600  -41.9620 C   0  0  0  0  0  0  0  0  0  0  0  0
  -11.4110  -13.8960  -41.0030 C   0  0  0  0  0  0  0  0  0  0  0  0
  -11.6950  -13.7160  -42.4570 C   0  0  0  0  0  0  0  0  0  0  0  0
  1  3  2  0  0  0  0
  1  6  1  0  0  0  0
  1  2  1  0  0  0  0
  2 10  2  0  0  0  0
  3  9  1  0  0  0  0
  3  4  1  0  0  0  0
  4  5  2  0  0  0  0
  5  6  1  0  0  0  0
  7  9  2  0  0  0  0
  7 10  1  0  0  0  0
  8 10  1  0  0  0  0
  9 18  1  0  0  0  0
 11  6  1  6  0  0  0
 11 12  1  0  0  0  0
 11 15  1  0  0  0  0
 12 13  1  0  0  0  0
 13 14  1  0  0  0  0
 14 17  1  6  0  0  0
 14 15  1  0  0  0  0
 16 17  1  0  0  0  0
 18 20  1  0  0  0  0
 19 21  1  0  0  0  0
 19 20  1  0  0  0  0
 20 21  1  0  0  0  0
M  END
>  <MODEL>
       1

>  <COMPND>
    UNNAMED

>  <AUTHOR>
    GENERATED BY OPEN BABEL 2.4.90

>  <MASTER>
        0    0    0    0    0    0    0    0   21    0   21    0

