__3vrj_A_rec_3vrj_1kx_lig_docked.pdb
 OpenBabel10171920013D

 21 24  0  0  1  0  0  0  0  0999 V2000
  -11.8690  -16.8720  -37.1710 C   0  0  0  0  0  0  0  0  0  0  0  0
  -11.3100  -15.9270  -36.4510 N   0  0  0  0  0  0  0  0  0  0  0  0
  -12.0190  -16.6830  -38.4880 C   0  0  0  0  0  0  0  0  0  0  0  0
  -12.6080  -17.7450  -38.9530 N   0  0  0  0  0  0  0  0  0  0  0  0
  -12.8310  -18.5410  -37.9440 C   0  0  0  0  0  0  0  0  0  0  0  0
  -12.3920  -18.0270  -36.8350 N   0  0  0  0  0  0  0  0  0  0  0  0
  -11.0100  -14.6420  -38.3120 N   0  0  0  0  0  0  0  0  0  0  0  0
  -10.2860  -13.9360  -36.2760 N   0  0  0  0  0  0  0  0  0  0  0  0
  -11.5280  -15.5770  -39.0610 C   0  0  0  0  0  0  0  0  0  0  0  0
  -10.8530  -14.8180  -37.0220 C   0  0  0  0  0  0  0  0  0  0  0  0
  -12.4600  -18.5710  -35.4340 C   0  0  1  0  0  0  0  0  0  0  0  0
  -13.5730  -19.4030  -35.2460 C   0  0  0  0  0  0  0  0  0  0  0  0
  -13.2010  -20.6220  -35.0150 C   0  0  0  0  0  0  0  0  0  0  0  0
  -11.8380  -20.7350  -34.9050 C   0  0  2  0  0  0  0  0  0  0  0  0
  -11.3090  -19.3380  -35.0380 C   0  0  0  0  0  0  0  0  0  0  0  0
  -10.2560  -20.9640  -36.7540 O   0  0  0  0  0  0  0  0  0  0  0  0
  -11.2370  -21.6090  -35.9910 C   0  0  0  0  0  0  0  0  0  0  0  0
  -11.7630  -15.4220  -40.3340 N   0  0  0  0  0  0  0  0  0  0  0  0
  -11.7200  -13.6090  -42.1400 C   0  0  0  0  0  0  0  0  0  0  0  0
  -11.3490  -14.4410  -41.1050 C   0  0  0  0  0  0  0  0  0  0  0  0
  -10.3420  -13.8410  -41.8170 C   0  0  0  0  0  0  0  0  0  0  0  0
  1  3  2  0  0  0  0
  1  6  1  0  0  0  0
  1  2  1  0  0  0  0
  2 10  2  0  0  0  0
  3  9  1  0  0  0  0
  3  4  1  0  0  0  0
  4  5  2  0  0  0  0
  5  6  1  0  0  0  0
  7  9  2  0  0  0  0
  7 10  1  0  0  0  0
  8 10  1  0  0  0  0
  9 18  1  0  0  0  0
 11  6  1  6  0  0  0
 11 12  1  0  0  0  0
 11 15  1  0  0  0  0
 12 13  1  0  0  0  0
 13 14  1  0  0  0  0
 14 17  1  6  0  0  0
 14 15  1  0  0  0  0
 16 17  1  0  0  0  0
 18 20  1  0  0  0  0
 19 21  1  0  0  0  0
 19 20  1  0  0  0  0
 20 21  1  0  0  0  0
M  END
>  <MODEL>
       1

>  <COMPND>
    UNNAMED

>  <AUTHOR>
    GENERATED BY OPEN BABEL 2.4.90

>  <MASTER>
        0    0    0    0    0    0    0    0   21    0   21    0

