__3vrj_A_rec_3vri_1kx_lig_docked.pdb
 OpenBabel10171920013D

 21 24  0  0  1  0  0  0  0  0999 V2000
  -11.9240  -16.8180  -37.1730 C   0  0  0  0  0  0  0  0  0  0  0  0
  -11.3130  -15.9030  -36.4630 N   0  0  0  0  0  0  0  0  0  0  0  0
  -12.0150  -16.6250  -38.4910 C   0  0  0  0  0  0  0  0  0  0  0  0
  -12.6460  -17.6620  -39.0520 N   0  0  0  0  0  0  0  0  0  0  0  0
  -12.9040  -18.4730  -38.0470 C   0  0  0  0  0  0  0  0  0  0  0  0
  -12.4640  -17.9780  -36.8930 N   0  0  0  0  0  0  0  0  0  0  0  0
  -10.9620  -14.5900  -38.3230 N   0  0  0  0  0  0  0  0  0  0  0  0
  -10.2620  -13.8790  -36.3040 N   0  0  0  0  0  0  0  0  0  0  0  0
  -11.5380  -15.5090  -39.0500 C   0  0  0  0  0  0  0  0  0  0  0  0
  -10.8610  -14.7800  -37.0320 C   0  0  0  0  0  0  0  0  0  0  0  0
  -12.5720  -18.6070  -35.5510 C   0  0  1  0  0  0  0  0  0  0  0  0
  -13.6400  -19.5170  -35.3890 C   0  0  0  0  0  0  0  0  0  0  0  0
  -13.1970  -20.7150  -35.0270 C   0  0  0  0  0  0  0  0  0  0  0  0
  -11.8360  -20.7650  -34.8750 C   0  0  2  0  0  0  0  0  0  0  0  0
  -11.3590  -19.3670  -35.1800 C   0  0  0  0  0  0  0  0  0  0  0  0
  -10.6750  -21.0700  -36.9470 O   0  0  0  0  0  0  0  0  0  0  0  0
  -11.0670  -21.7160  -35.7700 C   0  0  0  0  0  0  0  0  0  0  0  0
  -11.6940  -15.4000  -40.3520 N   0  0  0  0  0  0  0  0  0  0  0  0
  -11.6510  -13.6410  -42.2410 C   0  0  0  0  0  0  0  0  0  0  0  0
  -11.3090  -14.3770  -41.1020 C   0  0  0  0  0  0  0  0  0  0  0  0
  -10.2790  -13.7670  -41.8520 C   0  0  0  0  0  0  0  0  0  0  0  0
  1  3  2  0  0  0  0
  1  6  1  0  0  0  0
  1  2  1  0  0  0  0
  2 10  2  0  0  0  0
  3  4  1  0  0  0  0
  3  9  1  0  0  0  0
  4  5  2  0  0  0  0
  5  6  1  0  0  0  0
  7  9  2  0  0  0  0
  7 10  1  0  0  0  0
  8 10  1  0  0  0  0
  9 18  1  0  0  0  0
 11  6  1  6  0  0  0
 11 15  1  0  0  0  0
 11 12  1  0  0  0  0
 12 13  2  0  0  0  0
 13 14  1  0  0  0  0
 14 17  1  6  0  0  0
 14 15  1  0  0  0  0
 16 17  1  0  0  0  0
 18 20  1  0  0  0  0
 19 21  1  0  0  0  0
 19 20  1  0  0  0  0
 20 21  1  0  0  0  0
M  END
>  <MODEL>
       2

>  <COMPND>
    UNNAMED

>  <AUTHOR>
    GENERATED BY OPEN BABEL 2.4.90

>  <MASTER>
        0    0    0    0    0    0    0    0   21    0   21    0

