__3vrj_A_rec_3vrj_1kx_lig_min.pdb
 OpenBabel10171920013D

 21 24  0  0  1  0  0  0  0  0999 V2000
  -11.8780  -16.9280  -37.1710 C   0  0  0  0  0  0  0  0  0  0  0  0
  -11.2880  -16.0230  -36.4250 N   0  0  0  0  0  0  0  0  0  0  0  0
  -12.0530  -16.6800  -38.4750 C   0  0  0  0  0  0  0  0  0  0  0  0
  -12.6700  -17.7130  -38.9720 N   0  0  0  0  0  0  0  0  0  0  0  0
  -12.8840  -18.5470  -37.9920 C   0  0  0  0  0  0  0  0  0  0  0  0
  -12.4130  -18.0870  -36.8720 N   0  0  0  0  0  0  0  0  0  0  0  0
  -11.0070  -14.6650  -38.2360 N   0  0  0  0  0  0  0  0  0  0  0  0
  -10.2260  -14.0580  -36.1900 N   0  0  0  0  0  0  0  0  0  0  0  0
  -11.5560  -15.5600  -39.0120 C   0  0  0  0  0  0  0  0  0  0  0  0
  -10.8240  -14.8980  -36.9590 C   0  0  0  0  0  0  0  0  0  0  0  0
  -12.4600  -18.6890  -35.4940 C   0  0  1  0  0  0  0  0  0  0  0  0
  -13.5060  -19.6120  -35.3580 C   0  0  0  0  0  0  0  0  0  0  0  0
  -13.0440  -20.8060  -35.1660 C   0  0  0  0  0  0  0  0  0  0  0  0
  -11.6780  -20.8170  -35.0360 C   0  0  2  0  0  0  0  0  0  0  0  0
  -11.2580  -19.3780  -35.1060 C   0  0  0  0  0  0  0  0  0  0  0  0
  -11.7350  -21.6670  -37.3270 O   0  0  0  0  0  0  0  0  0  0  0  0
  -10.9920  -21.5990  -36.1420 C   0  0  0  0  0  0  0  0  0  0  0  0
  -11.8160  -15.3470  -40.2720 N   0  0  0  0  0  0  0  0  0  0  0  0
  -11.5780  -13.5260  -42.0550 C   0  0  0  0  0  0  0  0  0  0  0  0
  -11.2940  -14.4220  -41.0460 C   0  0  0  0  0  0  0  0  0  0  0  0
  -10.2380  -13.9620  -41.7910 C   0  0  0  0  0  0  0  0  0  0  0  0
  1  3  2  0  0  0  0
  1  6  1  0  0  0  0
  1  2  1  0  0  0  0
  2 10  2  0  0  0  0
  3  9  1  0  0  0  0
  3  4  1  0  0  0  0
  4  5  2  0  0  0  0
  5  6  1  0  0  0  0
  7  9  2  0  0  0  0
  7 10  1  0  0  0  0
  8 10  1  0  0  0  0
  9 18  1  0  0  0  0
 11  6  1  6  0  0  0
 11 12  1  0  0  0  0
 11 15  1  0  0  0  0
 12 13  1  0  0  0  0
 13 14  1  0  0  0  0
 14 17  1  6  0  0  0
 14 15  1  0  0  0  0
 16 17  1  0  0  0  0
 18 20  1  0  0  0  0
 19 21  1  0  0  0  0
 19 20  1  0  0  0  0
 20 21  1  0  0  0  0
M  END
>  <COMPND>
    UNNAMED

>  <AUTHOR>
    GENERATED BY OPEN BABEL 2.4.90

>  <MASTER>
        0    0    0    0    0    0    0    0   21    0   21    0

