__3vrj_A_rec_5u98_1kx_lig_min.pdb
 OpenBabel10171920013D

 21 24  0  0  1  0  0  0  0  0999 V2000
  -11.9480  -16.8570  -37.2370 C   0  0  0  0  0  0  0  0  0  0  0  0
  -11.3090  -15.9080  -36.4690 N   0  0  0  0  0  0  0  0  0  0  0  0
  -12.1100  -16.6860  -38.6140 C   0  0  0  0  0  0  0  0  0  0  0  0
  -12.7660  -17.8100  -39.0960 N   0  0  0  0  0  0  0  0  0  0  0  0
  -13.0080  -18.6400  -38.0340 C   0  0  0  0  0  0  0  0  0  0  0  0
  -12.5130  -18.0690  -36.9070 N   0  0  0  0  0  0  0  0  0  0  0  0
  -10.9930  -14.5800  -38.3410 N   0  0  0  0  0  0  0  0  0  0  0  0
  -10.2100  -13.8180  -36.2520 N   0  0  0  0  0  0  0  0  0  0  0  0
  -11.5820  -15.4590  -39.1640 C   0  0  0  0  0  0  0  0  0  0  0  0
  -10.8520  -14.8050  -37.0410 C   0  0  0  0  0  0  0  0  0  0  0  0
  -12.5540  -18.6080  -35.5870 C   0  0  1  0  0  0  0  0  0  0  0  0
  -13.7540  -19.6560  -35.5040 C   0  0  0  0  0  0  0  0  0  0  0  0
  -13.2580  -20.9160  -35.4200 C   0  0  0  0  0  0  0  0  0  0  0  0
  -11.7870  -20.8400  -35.1380 C   0  0  2  0  0  0  0  0  0  0  0  0
  -11.4090  -19.2960  -35.2920 C   0  0  0  0  0  0  0  0  0  0  0  0
  -11.6640  -21.6840  -37.3620 O   0  0  0  0  0  0  0  0  0  0  0  0
  -10.9840  -21.6100  -36.1110 C   0  0  0  0  0  0  0  0  0  0  0  0
  -11.6690  -15.1480  -40.5590 N   0  0  0  0  0  0  0  0  0  0  0  0
  -11.6780  -13.6670  -42.5470 C   0  0  0  0  0  0  0  0  0  0  0  0
  -11.4350  -13.8120  -41.0530 C   0  0  0  0  0  0  0  0  0  0  0  0
  -10.2680  -13.5790  -42.0040 C   0  0  0  0  0  0  0  0  0  0  0  0
  1  3  2  0  0  0  0
  1  6  1  0  0  0  0
  1  2  1  0  0  0  0
  2 10  2  0  0  0  0
  3  9  1  0  0  0  0
  3  4  1  0  0  0  0
  4  5  2  0  0  0  0
  5  6  1  0  0  0  0
  7  9  2  0  0  0  0
  7 10  1  0  0  0  0
  8 10  1  0  0  0  0
  9 18  1  0  0  0  0
 11  6  1  6  0  0  0
 11 15  1  0  0  0  0
 11 12  1  0  0  0  0
 12 13  1  0  0  0  0
 13 14  1  0  0  0  0
 14 17  1  6  0  0  0
 14 15  1  0  0  0  0
 16 17  1  0  0  0  0
 18 20  1  0  0  0  0
 19 21  1  0  0  0  0
 19 20  1  0  0  0  0
 20 21  1  0  0  0  0
M  END
>  <COMPND>
    UNNAMED

>  <AUTHOR>
    GENERATED BY OPEN BABEL 2.4.90

>  <MASTER>
        0    0    0    0    0    0    0    0   21    0   21    0

