__5u98_D_rec_5u98_1kx_lig_docked.pdb
 OpenBabel10171920013D

 21 24  0  0  1  0  0  0  0  0999 V2000
  -11.9780  -16.9990  -36.9750 C   0  0  0  0  0  0  0  0  0  0  0  0
  -11.3350  -15.9940  -36.2840 N   0  0  0  0  0  0  0  0  0  0  0  0
  -12.2050  -16.9030  -38.3510 C   0  0  0  0  0  0  0  0  0  0  0  0
  -12.8470  -18.0670  -38.7460 N   0  0  0  0  0  0  0  0  0  0  0  0
  -13.0180  -18.8490  -37.6350 C   0  0  0  0  0  0  0  0  0  0  0  0
  -12.4920  -18.2080  -36.5610 N   0  0  0  0  0  0  0  0  0  0  0  0
  -11.1410  -14.7550  -38.2320 N   0  0  0  0  0  0  0  0  0  0  0  0
  -10.2920  -13.8660  -36.2190 N   0  0  0  0  0  0  0  0  0  0  0  0
  -11.7380  -15.6900  -38.9830 C   0  0  0  0  0  0  0  0  0  0  0  0
  -10.9380  -14.9090  -36.9290 C   0  0  0  0  0  0  0  0  0  0  0  0
  -12.4600  -18.6800  -35.2150 C   0  0  1  0  0  0  0  0  0  0  0  0
  -13.7380  -19.6020  -34.9700 C   0  0  0  0  0  0  0  0  0  0  0  0
  -13.3550  -20.8990  -34.8630 C   0  0  0  0  0  0  0  0  0  0  0  0
  -11.8640  -20.9530  -34.7160 C   0  0  2  0  0  0  0  0  0  0  0  0
  -11.3610  -19.4620  -34.9860 C   0  0  0  0  0  0  0  0  0  0  0  0
  -10.4500  -21.0730  -36.6290 O   0  0  0  0  0  0  0  0  0  0  0  0
  -11.2290  -21.8400  -35.7130 C   0  0  0  0  0  0  0  0  0  0  0  0
  -11.8950  -15.4530  -40.3860 N   0  0  0  0  0  0  0  0  0  0  0  0
  -12.1460  -14.0770  -42.4330 C   0  0  0  0  0  0  0  0  0  0  0  0
  -11.9130  -14.1160  -40.9300 C   0  0  0  0  0  0  0  0  0  0  0  0
  -10.7920  -13.6960  -41.8730 C   0  0  0  0  0  0  0  0  0  0  0  0
  1  3  2  0  0  0  0
  1  6  1  0  0  0  0
  1  2  1  0  0  0  0
  2 10  2  0  0  0  0
  3  9  1  0  0  0  0
  3  4  1  0  0  0  0
  4  5  2  0  0  0  0
  5  6  1  0  0  0  0
  7  9  2  0  0  0  0
  7 10  1  0  0  0  0
  8 10  1  0  0  0  0
  9 18  1  0  0  0  0
 11  6  1  6  0  0  0
 11 15  1  0  0  0  0
 11 12  1  0  0  0  0
 12 13  1  0  0  0  0
 13 14  1  0  0  0  0
 14 17  1  6  0  0  0
 14 15  1  0  0  0  0
 16 17  1  0  0  0  0
 18 20  1  0  0  0  0
 19 21  1  0  0  0  0
 19 20  1  0  0  0  0
 20 21  1  0  0  0  0
M  END
>  <MODEL>
       2

>  <COMPND>
    UNNAMED

>  <AUTHOR>
    GENERATED BY OPEN BABEL 2.4.90

>  <MASTER>
        0    0    0    0    0    0    0    0   21    0   21    0

