__5u98_D_rec_3upr_1kx_lig_docked.pdb
 OpenBabel10171920013D

 21 24  0  0  1  0  0  0  0  0999 V2000
  -12.0380  -17.0520  -36.9650 C   0  0  0  0  0  0  0  0  0  0  0  0
  -11.3810  -16.0150  -36.2650 N   0  0  0  0  0  0  0  0  0  0  0  0
  -12.2370  -16.9390  -38.3300 C   0  0  0  0  0  0  0  0  0  0  0  0
  -12.8920  -18.0920  -38.7430 N   0  0  0  0  0  0  0  0  0  0  0  0
  -13.0960  -18.8960  -37.6430 C   0  0  0  0  0  0  0  0  0  0  0  0
  -12.5870  -18.2820  -36.5600 N   0  0  0  0  0  0  0  0  0  0  0  0
  -11.1280  -14.7570  -38.2470 N   0  0  0  0  0  0  0  0  0  0  0  0
  -10.2680  -13.8230  -36.1660 N   0  0  0  0  0  0  0  0  0  0  0  0
  -11.7640  -15.7530  -38.9940 C   0  0  0  0  0  0  0  0  0  0  0  0
  -10.9410  -14.8900  -36.9190 C   0  0  0  0  0  0  0  0  0  0  0  0
  -12.5840  -18.7900  -35.1750 C   0  0  1  0  0  0  0  0  0  0  0  0
  -13.7180  -19.7610  -34.9580 C   0  0  0  0  0  0  0  0  0  0  0  0
  -13.1560  -21.0070  -34.3580 C   0  0  0  0  0  0  0  0  0  0  0  0
  -11.6770  -20.9610  -34.5000 C   0  0  2  0  0  0  0  0  0  0  0  0
  -11.3190  -19.5010  -34.7950 C   0  0  0  0  0  0  0  0  0  0  0  0
  -10.8760  -21.4450  -36.7780 O   0  0  0  0  0  0  0  0  0  0  0  0
  -11.2620  -21.9380  -35.5470 C   0  0  0  0  0  0  0  0  0  0  0  0
  -11.9190  -15.5450  -40.4440 N   0  0  0  0  0  0  0  0  0  0  0  0
  -10.8730  -13.7920  -41.8020 C   0  0  0  0  0  0  0  0  0  0  0  0
  -12.0160  -14.2000  -40.9300 C   0  0  0  0  0  0  0  0  0  0  0  0
  -12.1880  -14.1460  -42.4110 C   0  0  0  0  0  0  0  0  0  0  0  0
  1  3  2  0  0  0  0
  1  6  1  0  0  0  0
  1  2  1  0  0  0  0
  2 10  2  0  0  0  0
  3  9  1  0  0  0  0
  3  4  1  0  0  0  0
  4  5  2  0  0  0  0
  5  6  1  0  0  0  0
  7  9  2  0  0  0  0
  7 10  1  0  0  0  0
  8 10  1  0  0  0  0
  9 18  1  0  0  0  0
 11  6  1  6  0  0  0
 11 12  1  0  0  0  0
 11 15  1  0  0  0  0
 12 13  1  0  0  0  0
 13 14  1  0  0  0  0
 14 17  1  6  0  0  0
 14 15  1  0  0  0  0
 16 17  1  0  0  0  0
 18 20  1  0  0  0  0
 19 21  1  0  0  0  0
 19 20  1  0  0  0  0
 20 21  1  0  0  0  0
M  END
>  <MODEL>
       2

>  <COMPND>
    UNNAMED

>  <AUTHOR>
    GENERATED BY OPEN BABEL 2.4.90

>  <MASTER>
        0    0    0    0    0    0    0    0   21    0   21    0

